15
Total DFT energy = -136990.603561966 
Ti   -0.26139738   0.90349800   -0.76818556 
Ti   -1.36789353   -1.34435379   0.78740697 
Ti   1.25040991   -1.51717866   -0.02545209 
Ti   -3.01872665   0.77191851   0.25383253 
Ti   2.55217128   0.40455566   -1.47492072 
O   -3.07210318   -1.18158385   0.36757113 
O   0.13050775   -2.37505679   1.19128418 
O   1.52382143   0.22528297   0.26162557 
O   -1.22065045   0.40643039   1.11343220 
O   3.96095490   1.15727671   -1.36204206 
O   -1.87404346   1.51246704   -1.10930439 
O   2.42573768   -1.54416564   -1.33884993 
O   0.93688744   1.32705607   -1.98165032 
O   -4.01632948   1.68324285   1.11305877 
O   -0.41995625   -1.01591251   -0.87085727
