12
Total DFT energy = -109591.526385395 
Ti   -1.62308461   0.66663996   0.92298577 
Ti   2.28711817   -0.25922464   0.60063929 
Ti   0.47089397   1.37324720   -0.91366055 
Ti   -0.13662357   -1.33390044   -0.50713147 
O   0.32004283   0.19031678   0.65455442 
O   -2.15374782   1.00620074   2.39202936 
O   3.13388196   -0.24567432   1.95628749 
O   1.48127905   -1.91165490   -0.02137367 
O   0.03888422   -0.12349114   -1.85550985 
O   -1.74525078   -1.14760242   0.24459743 
O   -1.01743492   2.09555584   -0.24239360 
O   2.20913451   1.33159431   -0.50838262
