18
Total DFT energy = -164390.818506874 
Ti   1.16822590   -0.39829745   -0.11695762 
Ti   -2.24322888   -1.09320131   0.52272710 
Ti   -1.18989651   1.60832364   -0.84630245 
Ti   0.05338958   -3.28516524   0.72286586 
Ti   -1.39839789   0.92990790   2.29067807 
Ti   0.84979761   -0.83423770   2.64726432 
O   -1.78273559   -2.78122907   0.46698776 
O   -1.26130252   2.13918528   1.06427246 
O   2.08541566   -0.25034378   1.49110154 
O   -0.14971164   0.42339502   3.54151891 
O   0.93624506   -2.06802153   -0.52648491 
O   -2.79924547   -0.15218840   2.02416974 
O   0.58637751   0.92401050   -1.10566868 
O   0.39180717   -4.83416815   0.53231480 
O   0.55173161   -2.52866388   2.48821820 
O   -1.67004922   2.72959995   -1.87703560 
O   -2.22009370   -0.05300383   -0.86541507 
O   -0.42744266   -0.41392796   1.15037857
