30
Total DFT energy = -273989.443013773 
Ti   1.83042590   0.98033005   -2.65397514 
Ti   -2.82034050   -1.48201430   -1.18729309 
Ti   -0.07117495   -0.12869914   2.49508612 
Ti   -1.02816296   2.56845139   2.01029992 
Ti   0.52801804   2.30330355   -0.42418466 
Ti   -0.24873319   -1.00104492   -2.23347637 
Ti   -2.22380039   1.14545299   -0.10733390 
Ti   1.93087885   -2.02246392   1.90846186 
Ti   2.45649003   0.02876430   -0.07689927 
Ti   -0.57157057   -2.28113253   0.46286993 
O   -0.51402328   1.13091994   0.96467169 
O   -3.64318862   0.06993642   -0.72038061 
O   -1.98298244   -1.49758130   -2.76543932 
O   -1.31169942   -0.61106703   -0.56294448 
O   0.82022488   -0.21931297   -3.57266039 
O   1.38172464   2.64881503   -2.02412897 
O   -0.57181557   1.45905474   3.37579200 
O   -2.64667103   2.32736728   1.29315014 
O   -1.29692082   2.09584226   -1.21768189 
O   0.05105009   3.52830796   0.87188294 
O   2.13761485   1.61282932   0.54299099 
O   1.30841748   -1.11081030   3.31321864 
O   0.82914595   0.38692357   -1.21533404 
O   3.30758756   -1.26525235   0.99472208 
O   3.23401737   0.32538165   -1.76349784 
O   0.33264850   -2.35145159   -1.32047285 
O   -1.26045442   -1.31284004   2.07249324 
O   -2.22500011   -2.85757160   -0.12175823 
O   0.70522848   -3.27524315   1.35141190 
O   0.90935463   -0.86237532   0.89110261
