9
Total DFT energy = -82192.093849742 
Ti   -0.39358793   0.21015746   -1.82429400 
Ti   -1.28483872   -0.10867205   0.80298168 
Ti   1.49865122   0.09983796   0.22655090 
O   -2.37018897   -0.96653790   1.62411872 
O   2.93079070   -0.56887227   0.52653633 
O   0.29682531   0.43039963   1.58907317 
O   -1.68879719   0.86362839   -0.90012181 
O   1.05357335   1.06895859   -1.46808585 
O   -0.04242977   -1.02889879   -0.57675914
