6
Total DFT energy = -54792.946306103 
Ti   -1.34940769   -0.00245198   0.00839631 
Ti   1.34910745   -0.00151505   -0.00762956 
O   -0.00059395   1.24310043   -0.00147837 
O   0.00029373   -1.24706748   0.00224443 
O   2.22922453   -0.00322150   -1.35811930 
O   -2.22952409   -0.00074543   1.35888648
